[TITLE]
Input Files

[OPTIONS]
FLOW_UNITS           CFS
INFILTRATION         GREEN_AMPT
FLOW_ROUTING         KINWAVE
START_DATE           10/01/1988
START_TIME           00:00:00
REPORT_START_DATE    10/01/1988
REPORT_START_TIME    00:00:00
END_DATE             10/01/2006
END_TIME             00:00:00
SWEEP_START          01/01
SWEEP_END            12/31
DRY_DAYS             0
REPORT_STEP          00:15:00
WET_STEP             00:15:00
DRY_STEP             04:00:00
ROUTING_STEP         0:00:30 
ALLOW_PONDING        NO
INERTIAL_DAMPING     PARTIAL
VARIABLE_STEP        0.75
LENGTHENING_STEP     0
MIN_SURFAREA         0
NORMAL_FLOW_LIMITED  BOTH
SKIP_STEADY_STATE    NO
FORCE_MAIN_EQUATION  H-W
LINK_OFFSETS         DEPTH
MIN_SLOPE            1

[EVAPORATION]
;;Type       Parameters
;;---------- ----------
MONTHLY      0.011  0.015  0.025  0.078  0.106  0.134  0.152  0.135  0.104  0.064  0.034  0.01  
DRY_ONLY     NO

[TEMPERATURE]
TIMESERIES   TempTSeries
WINDSPEED    MONTHLY    11.5 11.7 11.2 10.5 9.5 9.2 8.7 8.5 8.9 9.8 11.2 11.5
SNOWMELT               34 0.5 0.6 7824 39 0
ADC          IMPERVIOUS 0.1 0.5 0.6 0.675 0.75 0.775 0.85 0.875 0.925 0.975
ADC          PERVIOUS   0.1 0.5 0.6 0.675 0.75 0.775 0.85 0.875 0.925 0.975

[RAINGAGES]
;;               Rain      Time   Snow   Data      
;;Name           Type      Intrvl Catch  Source    
;;-------------- --------- ------ ------ ----------
204              VOLUME    1:00   1.0    FILE       "204_Precip.dat" 204        IN   

[SUBCATCHMENTS]
;;                                                 Total    Pcnt.             Pcnt.    Curb     Snow    
;;Name           Raingage         Outlet           Area     Imperv   Width    Slope    Length   Pack    
;;-------------- ---------------- ---------------- -------- -------- -------- -------- -------- --------
Test_SerToInfCa  204              Test_SerIsInfCa  2        80       208.7    2        0        Roads           
Test_SerIsInfCa  204              Test_Ju          0.007    0        12.050   0.1      0        Pervious        
Test_SfrToInfCa  204              Test_SfrIsInfCa  8        40       697.0    2        0        Parcels         
Test_SfrIsInfCa  204              Test_Ju          0.133    0        53.889   0.1      0        Pervious        
Test_SerToOutCa  204              Test_Ju          2        80       208.7    2        0        Roads           
Test_SfrToOutCa  204              Test_Ju          8        40       697.0    2        0        Parcels         

[SUBAREAS]
;;Subcatchment   N-Imperv   N-Perv     S-Imperv   S-Perv     PctZero    RouteTo    PctRouted 
;;-------------- ---------- ---------- ---------- ---------- ---------- ---------- ----------
Test_SerToInfCa  0.012      0.150      0.02       0.1        0          PERVIOUS   0         
Test_SerIsInfCa  0.012      0.150      0.02       23.5       0          PERVIOUS   0         
Test_SfrToInfCa  0.012      0.150      0.02       0.1        0          PERVIOUS   0         
Test_SfrIsInfCa  0.012      0.150      0.02       23.5       0          PERVIOUS   0         
Test_SerToOutCa  0.012      0.150      0.02       0.1        0          PERVIOUS   50        
Test_SfrToOutCa  0.012      0.150      0.02       0.1        0          PERVIOUS   60        

[INFILTRATION]
;;Subcatchment   Suction    HydCon     IMDmax    
;;-------------- ---------- ---------- ----------
Test_SerToInfCa  2.9        0.43       0.36      
Test_SerIsInfCa  2.9        0.5        0.36      
Test_SfrToInfCa  2.897      0.99       0.36      
Test_SfrIsInfCa  2.897      0.5        0.36      
Test_SerToOutCa  2.897      0.43       0.36      
Test_SfrToOutCa  2.897      0.99       0.36      

[AQUIFERS]
;;               Por-   Wilt   Field  Hyd    Cond   Tens   Upper  Lower  Lower  Bottom Water  Upper 
;;Name           osity  Point  Capac  Cond   Slope  Slope  Evap   Evap   Loss   Elev   Table  Moist 
;;-------------- ------ ------ ------ ------ ------ ------ ------ ------ ------ ------ ------ ------
GW1              0.57   0.04   0.09   0.67   10.00  15.00  0.35   14.00  0.00   1.00   10.00  0.07  

[GROUNDWATER]
;;                                                 Surf                                      Fixed  GW    
;;Subcatchment   Aquifer          Node             Elev   A1     B1     A2     B2     A3     Depth  Elev  
;;-------------- ---------------- ---------------- ------ ------ ------ ------ ------ ------ ------ ------
Test_SerToInfCa  GW1              Gw               6500   1      1      0      0      0      0      1000  
Test_SerIsInfCa  GW1              Gw               6500   1      1      0      0      0      0      1000  
Test_SfrToInfCa  GW1              Gw               6500   1      1      0      0      0      0      1000  
Test_SfrIsInfCa  GW1              Gw               6500   1      1      0      0      0      0      1000  
Test_SerToOutCa  GW1              Gw               6500   1      1      0      0      0      0      1000  
Test_SfrToOutCa  GW1              Gw               6500   1      1      0      0      0      0      1000  

[SNOWPACKS]
Roads            PLOWABLE   0.003      0.007      32         0.10       0.00       0.00       0.90      
Roads            IMPERVIOUS 0.003      0.007      32         0.10       0.00       0.00       0.00      
Roads            PERVIOUS   0.003      0.007      32         0.10       0.00       0.00       0.00      
Roads            REMOVAL    0.1        0.0        0.8        0.2        0.0        0.0        
Parcels          PLOWABLE   0.0014     0.006      32         0.10       0.00       0.00       0.3       
Parcels          IMPERVIOUS 0.0014     0.006      32         0.10       0.00       0.00       0.00      
Parcels          PERVIOUS   0.0014     0.006      32         0.10       0.00       0.00       0.00      
Parcels          REMOVAL    0.1        0          0.2        0.8        0          0          
Pervious         PLOWABLE   0.0016     0.0033     32         0.10       0.00       0.00       0.00      
Pervious         IMPERVIOUS 0.0016     0.0033     32         0.10       0.00       0.00       0.00      
Pervious         PERVIOUS   0.0016     0.0033     32         0.10       0.00       0.00       0.00      
Pervious         REMOVAL    0.1        0.0        0.0        0.0        0.0        0.0        

[JUNCTIONS]
;;               Invert     Max.       Init.      Surcharge  Ponded    
;;Name           Elev.      Depth      Depth      Depth      Area      
;;-------------- ---------- ---------- ---------- ---------- ----------
Outfall1_UsJu    0          4          0          0          0         
Test_Ju          0          4          0          0          0         
DryBasin1_InJu   0          4          0          0          0         
DryBasin1_TrJu   0          4          0          0          0         
DryBasin1_OuJu   0          4          0          0          0         

[OUTFALLS]
;;               Invert     Outfall    Stage/Table      Tide
;;Name           Elev.      Type       Time Series      Gate
;;-------------- ---------- ---------- ---------------- ----
Outfall1         0          FREE                        NO
GW               0          FREE                        NO

[STORAGE]
;;               Invert   Max.     Init.    Storage    Curve                      Ponded   Evap.   
;;Name           Elev.    Depth    Depth    Curve      Params                     Area     Frac.    Infiltration Parameters
;;-------------- -------- -------- -------- ---------- -------- -------- -------- -------- -------- -----------------------
DryBasin1_St     0        12       0        TABULAR    DryBasin1_SaSur            0        0       

[CONDUITS]
;;               Inlet            Outlet                      Manning    Inlet      Outlet     Init.      Max.      
;;Name           Node             Node             Length     N          Offset     Offset     Flow       Flow      
;;-------------- ---------------- ---------------- ---------- ---------- ---------- ---------- ---------- ----------
Outfall1_UsCo    Outfall1_UsJu    Outfall1         10         0.01       0          0          0          0         
Test_DsCo        Test_Ju          DryBasin1_InJu   10         0.01       0          0          0          0         
DryBasin1_DsCo   DryBasin1_OuJu   Outfall1_UsJu    10         0.01       0          0          0          0         
DryBasin1_OtCo   DryBasin1_TrJu   DryBasin1_OuJu   10         0.01       0          0          0          0         
DryBasin1_InCo   DryBasin1_InJu   DryBasin1_St     10         0.01       0          0          0          0         

[WEIRS]
;;               Inlet            Outlet           Weir         Crest      Disch.     Flap End      End       
;;Name           Node             Node             Type         Height     Coeff.     Gate Con.     Coeff.    
;;-------------- ---------------- ---------------- ------------ ---------- ---------- ---- -------- ----------
DryBasin1_ByWe   DryBasin1_St     DryBasin1_OuJu   V-NOTCH      2          2.5        NO   0        0         

[OUTLETS]
;;               Inlet            Outlet           Outflow    Outlet          Qcoeff/                     Flap
;;Name           Node             Node             Height     Type            QTable           Qexpon     Gate
;;-------------- ---------------- ---------------- ---------- --------------- ---------------- ---------- ----
DryBasin1_TrOl   DryBasin1_St     DryBasin1_TrJu   0          TABULAR/DEPTH   DryBasin1_SdTrt             NO  
DryBasin1_GwOl   DryBasin1_St     GW               0          TABULAR/DEPTH   DryBasin1_SdInf             NO  

[XSECTIONS]
;;Link           Shape        Geom1            Geom2      Geom3      Geom4      Barrels   
;;-------------- ------------ ---------------- ---------- ---------- ---------- ----------
Outfall1_UsCo    DUMMY        0                0          0          0          1                    
Test_DsCo        DUMMY        0                0          0          0          1                    
DryBasin1_DsCo   DUMMY        0                0          0          0          1                    
DryBasin1_OtCo   DUMMY        0                0          0          0          1                    
DryBasin1_InCo   DUMMY        0                0          0          0          1                    
DryBasin1_ByWe   TRIANGULAR   10               100        5          5         

[LOSSES]
;;Link           Inlet      Outlet     Average    Flap Gate 
;;-------------- ---------- ---------- ---------- ----------

[POLLUTANTS]
;;               Mass   Rain       GW         I&I        Decay      Snow  Co-Pollut.       Co-Pollut. DWF       
;;Name           Units  Concen.    Concen.    Concen.    Coeff.     Only  Name             Fraction   Concen.   
;;-------------- ------ ---------- ---------- ---------- ---------- ----- ---------------- ---------- ----------
TSS              MG/L   0          0          0          0          NO    *                0.0        0         
FSP              MG/L   0          0          0          0          NO    *                0.0        0         
TP               MG/L   0          0          0          0          NO    *                0.0        0         
SRP              MG/L   0          0          0          0          NO    *                0.0        0         
TN               MG/L   0          0          0          0          NO    *                0.0        0         
DIN              MG/L   0          0          0          0          NO    *                0.0        0         

[LANDUSES]
;;               Cleaning   Fraction   Last      
;;Name           Interval   Available  Cleaned   
;;-------------- ---------- ---------- ----------
SfrNoBMP         0          0          0         
SfrBMP           0          0          0         
MfrNoBMP         0          0          0         
MfrBMP           0          0          0         
CicNoBMP         0          0          0         
CicBMP           0          0          0         
VgtNoBMP         0          0          0         
VgtBMP           0          0          0         
Vbu              0          0          0         
Upr              0          0          0         
Ski              0          0          0         
Ep1              0          0          0         
Ep2              0          0          0         
Ep3              0          0          0         
Ep4              0          0          0         
Ep5              0          0          0         
Test_PrrHi       0          0          0         
Test_PrrMo       0          0          0         
Test_PrrLo       0          0          0         
Test_SerHi       0          0          0         
Test_SerMo       0          0          0         
Test_SerLo       0          0          0         

[COVERAGES]
;;Subcatchment   Land Use         Percent   
;;-------------- ---------------- ----------
Test_SerToInfCa  Test_SerHi       34        
Test_SerToInfCa  Test_SerMo       33        
Test_SerToInfCa  Test_SerLo       33        
Test_SerIsInfCa  Ep1              100       
Test_SfrToInfCa  SfrBMP           100       
Test_SfrIsInfCa  Ep1              100       
Test_SerToOutCa  Test_SerHi       34        
Test_SerToOutCa  Test_SerMo       33        
Test_SerToOutCa  Test_SerLo       33        
Test_SfrToOutCa  SfrBMP           0         
Test_SfrToOutCa  SfrNoBMP         100       

[LOADINGS]
;;Subcatchment   Pollutant        Loading   
;;-------------- ---------------- ----------

[BUILDUP]
;;LandUse        Pollutant        Function   Coeff1     Coeff2     Coeff3     Normalizer
;;-------------- ---------------- ---------- ---------- ---------- ---------- ----------
SfrNoBMP         TSS              NONE       0          0          0          AREA      
SfrNoBMP         FSP              NONE       0          0          0          AREA      
SfrNoBMP         TP               NONE       0          0          0          AREA      
SfrNoBMP         SRP              NONE       0          0          0          AREA      
SfrNoBMP         TN               NONE       0          0          0          AREA      
SfrNoBMP         DIN              NONE       0          0          0          AREA      
SfrBMP           TSS              NONE       0          0          0          AREA      
SfrBMP           FSP              NONE       0          0          0          AREA      
SfrBMP           TP               NONE       0          0          0          AREA      
SfrBMP           SRP              NONE       0          0          0          AREA      
SfrBMP           TN               NONE       0          0          0          AREA      
SfrBMP           DIN              NONE       0          0          0          AREA      
MfrNoBMP         TSS              NONE       0          0          0          AREA      
MfrNoBMP         FSP              NONE       0          0          0          AREA      
MfrNoBMP         TP               NONE       0          0          0          AREA      
MfrNoBMP         SRP              NONE       0          0          0          AREA      
MfrNoBMP         TN               NONE       0          0          0          AREA      
MfrNoBMP         DIN              NONE       0          0          0          AREA      
MfrBMP           TSS              NONE       0          0          0          AREA      
MfrBMP           FSP              NONE       0          0          0          AREA      
MfrBMP           TP               NONE       0          0          0          AREA      
MfrBMP           SRP              NONE       0          0          0          AREA      
MfrBMP           TN               NONE       0          0          0          AREA      
MfrBMP           DIN              NONE       0          0          0          AREA      
CicNoBMP         TSS              NONE       0          0          0          AREA      
CicNoBMP         FSP              NONE       0          0          0          AREA      
CicNoBMP         TP               NONE       0          0          0          AREA      
CicNoBMP         SRP              NONE       0          0          0          AREA      
CicNoBMP         TN               NONE       0          0          0          AREA      
CicNoBMP         DIN              NONE       0          0          0          AREA      
CicBMP           TSS              NONE       0          0          0          AREA      
CicBMP           FSP              NONE       0          0          0          AREA      
CicBMP           TP               NONE       0          0          0          AREA      
CicBMP           SRP              NONE       0          0          0          AREA      
CicBMP           TN               NONE       0          0          0          AREA      
CicBMP           DIN              NONE       0          0          0          AREA      
VgtNoBMP         TSS              NONE       0          0          0          AREA      
VgtNoBMP         FSP              NONE       0          0          0          AREA      
VgtNoBMP         TP               NONE       0          0          0          AREA      
VgtNoBMP         SRP              NONE       0          0          0          AREA      
VgtNoBMP         TN               NONE       0          0          0          AREA      
VgtNoBMP         DIN              NONE       0          0          0          AREA      
VgtBMP           TSS              NONE       0          0          0          AREA      
VgtBMP           FSP              NONE       0          0          0          AREA      
VgtBMP           TP               NONE       0          0          0          AREA      
VgtBMP           SRP              NONE       0          0          0          AREA      
VgtBMP           TN               NONE       0          0          0          AREA      
VgtBMP           DIN              NONE       0          0          0          AREA      
Vbu              TSS              NONE       0          0          0          AREA      
Vbu              FSP              NONE       0          0          0          AREA      
Vbu              TP               NONE       0          0          0          AREA      
Vbu              SRP              NONE       0          0          0          AREA      
Vbu              TN               NONE       0          0          0          AREA      
Vbu              DIN              NONE       0          0          0          AREA      
Upr              TSS              NONE       0          0          0          AREA      
Upr              FSP              NONE       0          0          0          AREA      
Upr              TP               NONE       0          0          0          AREA      
Upr              SRP              NONE       0          0          0          AREA      
Upr              TN               NONE       0          0          0          AREA      
Upr              DIN              NONE       0          0          0          AREA      
Ski              TSS              NONE       0          0          0          AREA      
Ski              FSP              NONE       0          0          0          AREA      
Ski              TP               NONE       0          0          0          AREA      
Ski              SRP              NONE       0          0          0          AREA      
Ski              TN               NONE       0          0          0          AREA      
Ski              DIN              NONE       0          0          0          AREA      
Ep1              TSS              NONE       0          0          0          AREA      
Ep1              FSP              NONE       0          0          0          AREA      
Ep1              TP               NONE       0          0          0          AREA      
Ep1              SRP              NONE       0          0          0          AREA      
Ep1              TN               NONE       0          0          0          AREA      
Ep1              DIN              NONE       0          0          0          AREA      
Ep2              TSS              NONE       0          0          0          AREA      
Ep2              FSP              NONE       0          0          0          AREA      
Ep2              TP               NONE       0          0          0          AREA      
Ep2              SRP              NONE       0          0          0          AREA      
Ep2              TN               NONE       0          0          0          AREA      
Ep2              DIN              NONE       0          0          0          AREA      
Ep3              TSS              NONE       0          0          0          AREA      
Ep3              FSP              NONE       0          0          0          AREA      
Ep3              TP               NONE       0          0          0          AREA      
Ep3              SRP              NONE       0          0          0          AREA      
Ep3              TN               NONE       0          0          0          AREA      
Ep3              DIN              NONE       0          0          0          AREA      
Ep4              TSS              NONE       0          0          0          AREA      
Ep4              FSP              NONE       0          0          0          AREA      
Ep4              TP               NONE       0          0          0          AREA      
Ep4              SRP              NONE       0          0          0          AREA      
Ep4              TN               NONE       0          0          0          AREA      
Ep4              DIN              NONE       0          0          0          AREA      
Ep5              TSS              NONE       0          0          0          AREA      
Ep5              FSP              NONE       0          0          0          AREA      
Ep5              TP               NONE       0          0          0          AREA      
Ep5              SRP              NONE       0          0          0          AREA      
Ep5              TN               NONE       0          0          0          AREA      
Ep5              DIN              NONE       0          0          0          AREA      
Test_PrrHi       TSS              NONE       0.0        0.0        0.0        AREA      
Test_PrrHi       FSP              NONE       0.0        0.0        0.0        AREA      
Test_PrrHi       TP               NONE       0.0        0.0        0.0        AREA      
Test_PrrHi       SRP              NONE       0.0        0.0        0.0        AREA      
Test_PrrHi       TN               NONE       0.0        0.0        0.0        AREA      
Test_PrrHi       DIN              NONE       0.0        0.0        0.0        AREA      
Test_PrrMo       TSS              NONE       0.0        0.0        0.0        AREA      
Test_PrrMo       FSP              NONE       0.0        0.0        0.0        AREA      
Test_PrrMo       TP               NONE       0.0        0.0        0.0        AREA      
Test_PrrMo       SRP              NONE       0.0        0.0        0.0        AREA      
Test_PrrMo       TN               NONE       0.0        0.0        0.0        AREA      
Test_PrrMo       DIN              NONE       0.0        0.0        0.0        AREA      
Test_PrrLo       TSS              NONE       0.0        0.0        0.0        AREA      
Test_PrrLo       FSP              NONE       0.0        0.0        0.0        AREA      
Test_PrrLo       TP               NONE       0.0        0.0        0.0        AREA      
Test_PrrLo       SRP              NONE       0.0        0.0        0.0        AREA      
Test_PrrLo       TN               NONE       0.0        0.0        0.0        AREA      
Test_PrrLo       DIN              NONE       0.0        0.0        0.0        AREA      
Test_SerHi       TSS              NONE       0.0        0.0        0.0        AREA      
Test_SerHi       FSP              NONE       0.0        0.0        0.0        AREA      
Test_SerHi       TP               NONE       0.0        0.0        0.0        AREA      
Test_SerHi       SRP              NONE       0.0        0.0        0.0        AREA      
Test_SerHi       TN               NONE       0.0        0.0        0.0        AREA      
Test_SerHi       DIN              NONE       0.0        0.0        0.0        AREA      
Test_SerMo       TSS              NONE       0.0        0.0        0.0        AREA      
Test_SerMo       FSP              NONE       0.0        0.0        0.0        AREA      
Test_SerMo       TP               NONE       0.0        0.0        0.0        AREA      
Test_SerMo       SRP              NONE       0.0        0.0        0.0        AREA      
Test_SerMo       TN               NONE       0.0        0.0        0.0        AREA      
Test_SerMo       DIN              NONE       0.0        0.0        0.0        AREA      
Test_SerLo       TSS              NONE       0.0        0.0        0.0        AREA      
Test_SerLo       FSP              NONE       0.0        0.0        0.0        AREA      
Test_SerLo       TP               NONE       0.0        0.0        0.0        AREA      
Test_SerLo       SRP              NONE       0.0        0.0        0.0        AREA      
Test_SerLo       TN               NONE       0.0        0.0        0.0        AREA      
Test_SerLo       DIN              NONE       0.0        0.0        0.0        AREA      

[WASHOFF]
;;                                                                 Cleaning   BMP       
;;Land Use       Pollutant        Function   Coeff1     Coeff2     Effic.     Effic.    
;;-------------- ---------------- ---------- ---------- ---------- ---------- ----------
SfrNoBMP         TSS              EMC        56.4       0          0          0         
SfrNoBMP         FSP              EMC        20.3       0          0          0         
SfrNoBMP         TP               EMC        0.468      0          0          0         
SfrNoBMP         SRP              EMC        0.144      0          0          0         
SfrNoBMP         TN               EMC        1.752      0          0          0         
SfrNoBMP         DIN              EMC        0.144      0          0          0         
SfrBMP           TSS              EMC        39         0          0          0         
SfrBMP           FSP              EMC        14         0          0          0         
SfrBMP           TP               EMC        0.421      0          0          0         
SfrBMP           SRP              EMC        0.13       0          0          0         
SfrBMP           TN               EMC        1.577      0          0          0         
SfrBMP           DIN              EMC        0.13       0          0          0         
MfrNoBMP         TSS              EMC        150        0          0          0         
MfrNoBMP         FSP              EMC        87         0          0          0         
MfrNoBMP         TP               EMC        0.588      0          0          0         
MfrNoBMP         SRP              EMC        0.144      0          0          0         
MfrNoBMP         TN               EMC        2.844      0          0          0         
MfrNoBMP         DIN              EMC        0.42       0          0          0         
MfrBMP           TSS              EMC        56.4       0          0          0         
MfrBMP           FSP              EMC        32.7       0          0          0         
MfrBMP           TP               EMC        0.529      0          0          0         
MfrBMP           SRP              EMC        0.13       0          0          0         
MfrBMP           TN               EMC        2.56       0          0          0         
MfrBMP           DIN              EMC        0.378      0          0          0         
CicNoBMP         TSS              EMC        296.4      0          0          0         
CicNoBMP         FSP              EMC        186.7      0          0          0         
CicNoBMP         TP               EMC        0.702      0          0          0         
CicNoBMP         SRP              EMC        0.37       0          0          0         
CicNoBMP         TN               EMC        2.472      0          0          0         
CicNoBMP         DIN              EMC        0.293      0          0          0         
CicBMP           TSS              EMC        204        0          0          0         
CicBMP           FSP              EMC        128.5      0          0          0         
CicBMP           TP               EMC        0.536      0          0          0         
CicBMP           SRP              EMC        0.05       0          0          0         
CicBMP           TN               EMC        2.136      0          0          0         
CicBMP           DIN              EMC        0.195      0          0          0         
VgtNoBMP         TSS              EMC        12         0          0          0         
VgtNoBMP         FSP              EMC        4.3        0          0          0         
VgtNoBMP         TP               EMC        1.09       0          0          0         
VgtNoBMP         SRP              EMC        0.631      0          0          0         
VgtNoBMP         TN               EMC        4.387      0          0          0         
VgtNoBMP         DIN              EMC        0.547      0          0          0         